$DATA1 SOURCE='HSPICE' VERSION='O-2018.09-SP2-1 linux64' PARAM_COUNT=0
.TITLE '* sim'
 gain             ugain_freq       phase_margin     temper          
 alter#          
 -2.557564135e+01    failed           failed         2.500000000e+01
2               
