$DATA1 SOURCE='PrimeSim HSPICE' VERSION='T-2022.06-SP1-1 linux64' PARAM_COUNT=0
.TITLE ''
 gain             temper           alter#          
 -7.132267454e+01  2.500000000e+01 1               
