$DATA1 SOURCE='PrimeSim HSPICE' VERSION='T-2022.06-SP1-1 linux64' PARAM_COUNT=0
.TITLE ''
 gain             ugain_freq       phase_margin     temper          
 alter#          
 -5.687438975e+01    failed           failed         2.500000000e+01
2               
