$DATA1 SOURCE='PrimeSim HSPICE' VERSION='T-2022.06-SP1-1 linux64' PARAM_COUNT=0
.TITLE '** copyright: suming lai'
 iq0              iq1              uds              vout0           
 vout1            voutr            temper           alter#          
 -2.102957e-03    -3.253629e-03    -1.005715e+00    -6.595837e-01   
 -1.005715e+00    -1.005715e+00     2.500000e+01    1               
